*Node
	1	,	0	,	0
	2	,	5	,	0
	3	,	10	,	0
	4	,	15	,	0
	5	,	20	,	0
	6	,	25	,	0
	7	,	30	,	0
	8	,	35	,	0
	9	,	40	,	0
	10	,	45	,	0
	11	,	50	,	0
	12	,	55	,	0
	13	,	60	,	0
	14	,	65	,	0
	15	,	70	,	0
	16	,	75	,	0
	17	,	80	,	0
	18	,	85	,	0
	19	,	90	,	0
	20	,	95	,	0
** ... 7595 like lines cut
	**
	12411	,	0	,	50
	12412	,	5	,	50
	12413	,	10	,	50
	12414	,	15	,	50
	12415	,	20	,	50
	12416	,	25	,	50
	12417	,	30	,	50
	12418	,	35	,	50
	12419	,	40	,	50
	12420	,	45	,	50
	12421	,	50	,	50
	12422	,	55	,	50
	12423	,	60	,	50
	12424	,	65	,	50
	12425	,	70	,	50
	12426	,	75	,	50
	12427	,	80	,	50
	12428	,	85	,	50
	12429	,	90	,	50
	12430	,	95	,	50
** ... 221 like lines cut
	**
	22411	,	0	,	-50
	22412	,	5	,	-50
	22413	,	10	,	-50
	22414	,	15	,	-50
	22415	,	20	,	-50
	22416	,	25	,	-50
	22417	,	30	,	-50
	22418	,	35	,	-50
	22419	,	40	,	-50
	22420	,	45	,	-50
	22421	,	50	,	-50
	22422	,	55	,	-50
	22423	,	60	,	-50
	22424	,	65	,	-50
	22425	,	70	,	-50
	22426	,	75	,	-50
	22427	,	80	,	-50
	22428	,	85	,	-50
	22429	,	90	,	-50
	22430	,	95	,	-50
** ... 221 like lines cut
	**
	32411	,	0	,	-45
	32412	,	5	,	-45
	32413	,	10	,	-45
	32414	,	15	,	-45
	32415	,	20	,	-45
	32416	,	25	,	-45
	32417	,	30	,	-45
	32418	,	35	,	-45
	32419	,	40	,	-45
	32420	,	45	,	-45
	32421	,	50	,	-45
	32422	,	55	,	-45
	32423	,	60	,	-45
	32424	,	65	,	-45
	32425	,	70	,	-45
	32426	,	75	,	-45
	32427	,	80	,	-45
	32428	,	85	,	-45
	32429	,	90	,	-45
	32430	,	95	,	-45
** ... 221 like lines cut
	**
** UEL ELEMENTS
** U1: Linear softening
** U2: Exponential softening
** U3: Bilinear softneing
** U4: Concrete softening
** U5: Hyperbolic softening
*USER ELEMENT, TYPE=U3, NODES=4, COORDINATES=2, PROPERTIES=6, VARIABLES=4
 1, 2, 11
*ELEMENT, type=U3, elset=pfczm
1	,	1	,	2	,	243	,	242
2	,	2	,	3	,	244	,	243
3	,	3	,	4	,	245	,	244
4	,	4	,	5	,	246	,	245
5	,	5	,	6	,	247	,	246
6	,	6	,	7	,	248	,	247
7	,	7	,	8	,	249	,	248
8	,	8	,	9	,	250	,	249
9	,	9	,	10	,	251	,	250
10	,	10	,	11	,	252	,	251
11	,	11	,	12	,	253	,	252
12	,	12	,	13	,	254	,	253
13	,	13	,	14	,	255	,	254
14	,	14	,	15	,	256	,	255
15	,	15	,	16	,	257	,	256
16	,	16	,	17	,	258	,	257
17	,	17	,	18	,	259	,	258
18	,	18	,	19	,	260	,	259
19	,	19	,	20	,	261	,	260
20	,	20	,	21	,	262	,	261
** ... 7180 like lines cut
**
*Elset, elset=substrate, generate
	1, 2400, 1
*UEL PROPERTY, ELSET=substrate
** UHPC
   30000.0, 0.2, 3.6, 0.15, 5.0, 250.0
**	 50000.0, 0.2, 9.6, 0.25, 5.0, 250.0
**
*Elset, elset=overlay, generate
	2401, 7200, 1
*UEL PROPERTY, ELSET=overlay
**Normal concrete
	 50000.0, 0.2, 9.6, 0.25, 5.0, 250.0
**   30000.0, 0.2, 3.6, 0.15, 5.0, 250.0
**************************************************
**
*Element, type=CPS4, elset=left-load
**
8000	,	7307	,	7308	,	8001	,	8000
8001	,	7308	,	7309	,	8002	,	8001
8002	,	7309	,	7310	,	8003	,	8002
8003	,	7310	,	7311	,	8004	,	8003
8004	,	7311	,	7312	,	8005	,	8004
8005	,	7312	,	7313	,	8006	,	8005
8006	,	7313	,	7314	,	8007	,	8006
8007	,	7314	,	7315	,	8008	,	8007
8008	,	8000	,	8001	,	8010	,	8009
8009	,	8001	,	8002	,	8011	,	8010
8010	,	8002	,	8003	,	8012	,	8011
8011	,	8003	,	8004	,	8013	,	8012
8012	,	8004	,	8005	,	8014	,	8013
8013	,	8005	,	8006	,	8015	,	8014
8014	,	8006	,	8007	,	8016	,	8015
8015	,	8007	,	8008	,	8017	,	8016
8016	,	8009	,	8010	,	8019	,	8018
8017	,	8010	,	8011	,	8020	,	8019
8018	,	8011	,	8012	,	8021	,	8020
8019	,	8012	,	8013	,	8022	,	8021
** ... 12 like lines cut
**************************************************
*Element, type=CPS4, elset=right-load
8032	,	7387	,	7388	,	8037	,	8036
8033	,	7388	,	7389	,	8038	,	8037
8034	,	7389	,	7390	,	8039	,	8038
8035	,	7390	,	7391	,	8040	,	8039
8036	,	7391	,	7392	,	8041	,	8040
8037	,	7392	,	7393	,	8042	,	8041
8038	,	7393	,	7394	,	8043	,	8042
8039	,	7394	,	7395	,	8044	,	8043
8040	,	8036	,	8037	,	8046	,	8045
8041	,	8037	,	8038	,	8047	,	8046
8042	,	8038	,	8039	,	8048	,	8047
8043	,	8039	,	8040	,	8049	,	8048
8044	,	8040	,	8041	,	8050	,	8049
8045	,	8041	,	8042	,	8051	,	8050
8046	,	8042	,	8043	,	8052	,	8051
8047	,	8043	,	8044	,	8053	,	8052
8048	,	8045	,	8046	,	8055	,	8054
8049	,	8046	,	8047	,	8056	,	8055
8050	,	8047	,	8048	,	8057	,	8056
8051	,	8048	,	8049	,	8058	,	8057
** ... 12 like lines cut
**************************************************
*Element, type=CPS4, elset=left-support
8064	,	17	,	8072	,	8073	,	18
8065	,	18	,	8073	,	8074	,	19
8066	,	19	,	8074	,	8075	,	20
8067	,	20	,	8075	,	8076	,	21
8068	,	21	,	8076	,	8077	,	22
8069	,	22	,	8077	,	8078	,	23
8070	,	23	,	8078	,	8079	,	24
8071	,	24	,	8079	,	8080	,	25
8072	,	8072	,	8081	,	8082	,	8073
8073	,	8073	,	8082	,	8083	,	8074
8074	,	8074	,	8083	,	8084	,	8075
8075	,	8075	,	8084	,	8085	,	8076
8076	,	8076	,	8085	,	8086	,	8077
8077	,	8077	,	8086	,	8087	,	8078
8078	,	8078	,	8087	,	8088	,	8079
8079	,	8079	,	8088	,	8089	,	8080
8080	,	8081	,	8090	,	8091	,	8082
8081	,	8082	,	8091	,	8092	,	8083
8082	,	8083	,	8092	,	8093	,	8084
8083	,	8084	,	8093	,	8094	,	8085
** ... 12 like lines cut
**************************************************
*Element, type=CPS4, elset=right-support
8096	,	217	,	8108	,	8109	,	218
8097	,	218	,	8109	,	8110	,	219
8098	,	219	,	8110	,	8111	,	220
8099	,	220	,	8111	,	8112	,	221
8100	,	221	,	8112	,	8113	,	222
8101	,	222	,	8113	,	8114	,	223
8102	,	223	,	8114	,	8115	,	224
8103	,	224	,	8115	,	8116	,	225
8104	,	8108	,	8117	,	8118	,	8109
8105	,	8109	,	8118	,	8119	,	8110
8106	,	8110	,	8119	,	8120	,	8111
8107	,	8111	,	8120	,	8121	,	8112
8108	,	8112	,	8121	,	8122	,	8113
8109	,	8113	,	8122	,	8123	,	8114
8110	,	8114	,	8123	,	8124	,	8115
8111	,	8115	,	8124	,	8125	,	8116
8112	,	8117	,	8126	,	8127	,	8118
8113	,	8118	,	8127	,	8128	,	8119
8114	,	8119	,	8128	,	8129	,	8120
8115	,	8120	,	8129	,	8130	,	8121
** ... 12 like lines cut
**
**************************************** 
*ELEMENT,TYPE=CPS4,ELSET=DUMMY 
100001	,	1	,	2	,	243	,	242
100002	,	2	,	3	,	244	,	243
100003	,	3	,	4	,	245	,	244
100004	,	4	,	5	,	246	,	245
100005	,	5	,	6	,	247	,	246
100006	,	6	,	7	,	248	,	247
100007	,	7	,	8	,	249	,	248
100008	,	8	,	9	,	250	,	249
100009	,	9	,	10	,	251	,	250
100010	,	10	,	11	,	252	,	251
100011	,	11	,	12	,	253	,	252
100012	,	12	,	13	,	254	,	253
100013	,	13	,	14	,	255	,	254
100014	,	14	,	15	,	256	,	255
100015	,	15	,	16	,	257	,	256
100016	,	16	,	17	,	258	,	257
100017	,	17	,	18	,	259	,	258
100018	,	18	,	19	,	260	,	259
100019	,	19	,	20	,	261	,	260
100020	,	20	,	21	,	262	,	261
** ... 7180 like lines cut
**
109000	,	22411	,	22412	,	32412	,	32411
109001	,	22412	,	22413	,	32413	,	32412
109002	,	22413	,	22414	,	32414	,	32413
109003	,	22414	,	22415	,	32415	,	32414
109004	,	22415	,	22416	,	32416	,	32415
109005	,	22416	,	22417	,	32417	,	32416
109006	,	22417	,	22418	,	32418	,	32417
109007	,	22418	,	22419	,	32419	,	32418
109008	,	22419	,	22420	,	32420	,	32419
109009	,	22420	,	22421	,	32421	,	32420
109010	,	22421	,	22422	,	32422	,	32421
109011	,	22422	,	22423	,	32423	,	32422
109012	,	22423	,	22424	,	32424	,	32423
109013	,	22424	,	22425	,	32425	,	32424
109014	,	22425	,	22426	,	32426	,	32425
109015	,	22426	,	22427	,	32427	,	32426
109016	,	22427	,	22428	,	32428	,	32427
109017	,	22428	,	22429	,	32429	,	32428
109018	,	22429	,	22430	,	32430	,	32429
109019	,	22430	,	22431	,	32431	,	32430
** ... 220 like lines cut
*************************************************************
*user element, type=U6, nodes=4, coordinates=2, iproperties=2, properties=7, variables=60
	1, 2
**
*Element, Type=U6, Elset=interface
9000	,	2411	,	2412	,	12412	,	12411
9001	,	2412	,	2413	,	12413	,	12412
9002	,	2413	,	2414	,	12414	,	12413
9003	,	2414	,	2415	,	12415	,	12414
9004	,	2415	,	2416	,	12416	,	12415
9005	,	2416	,	2417	,	12417	,	12416
9006	,	2417	,	2418	,	12418	,	12417
9007	,	2418	,	2419	,	12419	,	12418
9008	,	2419	,	2420	,	12420	,	12419
9009	,	2420	,	2421	,	12421	,	12420
9010	,	2421	,	2422	,	12422	,	12421
9011	,	2422	,	2423	,	12423	,	12422
9012	,	2423	,	2424	,	12424	,	12423
9013	,	2424	,	2425	,	12425	,	12424
9014	,	2425	,	2426	,	12426	,	12425
9015	,	2426	,	2427	,	12427	,	12426
9016	,	2427	,	2428	,	12428	,	12427
9017	,	2428	,	2429	,	12429	,	12428
9018	,	2429	,	2430	,	12430	,	12429
9019	,	2430	,	2431	,	12431	,	12430
** ... 220 like lines cut
**
*UEL PROPERTY, ELSET=interface  
	30000.0, 0.2, 6.0, 0.2, 5.0, 250.0
**************************************** 
*Nset, nset=damage, elset=pfczm
**
*Solid Section, elset=DUMMY, material=umatelemX
	250.0
*Solid Section, elset=Left-load, material=elastic_mat
	250.0
*Solid Section, elset=Left-support, material=elastic_mat
	250.0
*Solid Section, elset=Right-load, material=elastic_mat
	250.0
*Solid Section, elset=Right-support, material=elastic_mat
	250.0
**
**************************************** 
**
** DUMMY MATERIAL
*MATERIAL,NAME=umatelemX
*Depvar
	18,
*User Material, constants=2
	1.0e-11, 0.2
***Elastic
**	1.0e-11, 0.2
**
*Material, name= elastic_mat
*Elastic
	210000., 0.2
**
**************************************** 
**	
**
*Node
      100001,          600.,         250.,           0.
*Nset, nset=node_ref
 100001,
*Nset, nset=left_end
  8103
*Nset, nset=right_end
  8139
*Nset, nset=Load_point
  8031, 8067
***************************************************************
** ----------------------------------------------------------------
** 
** STEP: Step-1
** 
*Step, name=Step-1, nlgeom=NO, extrapolation=NO, inc=2000000
*Static, direct
	0.01, 100
**
** BFGS quasi-newton solver 
**
*SOLUTION TECHNIQUE, TYPE=QUASI-NEWTON, REFORM KERNEL=15
** 
** BOUNDARY CONDITIONS
** 
** Name: Load Type: Displacement/Rotation
*Boundary
	Load_point, 2, 2, -1.
*Boundary
	left_end,  1, 1
	left_end,  2, 2
	right_end, 2, 2
** 
** CONTROLS
** 
*Controls, parameters=time incrementation
1000, 1000, , 1000, 1000, , , 50, , , 
** 
**
** OUTPUT REQUESTS
** 
*Restart, write, frequency=0
** 
** FIELD OUTPUT: F-Output-1
** 
*Output, field, time interval=0.02
*NODE OUTPUT
	U, RF
*Element Output, directions=YES
	S, SDV,
** 
** HISTORY OUTPUT: H-Output-1
** 
** 
*Output, history, variable=PRESELECT
**
*end step